2PB
     RDKit          3D

 45 49  0  0  0  0  0  0  0  0999 V2000
   -5.2203    1.7672   -1.9751 C   0  0  0  0  0  0  0  0  0  0  0  0
   -4.7921    0.6916   -1.0724 N   0  0  0  0  0  0  0  0  0  0  0  0
   -5.4405   -0.4536   -0.8946 N   0  0  0  0  0  0  0  0  0  0  0  0
   -4.7395   -1.1938    0.0117 C   0  0  0  0  0  0  0  0  0  0  0  0
   -3.6402   -0.4728    0.3885 C   0  0  0  0  0  0  0  0  0  0  0  0
   -3.6940    0.7251   -0.3147 C   0  0  0  0  0  0  0  0  0  0  0  0
   -2.7074    1.6801   -0.1493 C   0  0  0  0  0  0  0  0  0  0  0  0
   -1.6521    1.4208    0.7394 C   0  0  0  0  0  0  0  0  0  0  0  0
   -1.5811    0.2086    1.4630 C   0  0  0  0  0  0  0  0  0  0  0  0
   -0.4445   -0.0670    2.3976 C   0  0  0  0  0  0  0  0  0  0  0  0
    0.3840   -1.1629    1.8176 C   0  0  0  0  0  0  0  0  0  0  0  0
    0.3465   -2.4105    2.3429 N   0  0  0  0  0  0  0  0  0  0  0  0
    1.1966   -3.1068    1.5887 N   0  0  0  0  0  0  0  0  0  0  0  0
    1.7944   -2.3824    0.5917 C   0  0  0  0  0  0  0  0  0  0  0  0
    1.2721   -1.1009    0.7269 C   0  0  0  0  0  0  0  0  0  0  0  0
    1.7020   -0.1014   -0.1784 C   0  0  0  0  0  0  0  0  0  0  0  0
    2.6317   -0.4292   -1.1739 C   0  0  0  0  0  0  0  0  0  0  0  0
    3.0542    0.5761   -2.0757 N   0  0  0  0  0  0  0  0  0  0  0  0
    3.0350    1.9844   -1.9030 C   0  0  0  0  0  0  0  0  0  0  0  0
    3.7016    2.6447   -3.0656 C   0  0  0  0  0  0  0  0  0  0  0  0
    3.5474    1.5996   -4.1480 C   0  0  0  0  0  0  0  0  0  0  0  0
    3.6037    0.3149   -3.3904 C   0  0  0  0  0  0  0  0  0  0  0  0
    2.5474    2.6299   -0.9421 O   0  0  0  0  0  0  0  0  0  0  0  0
    3.1310   -1.7436   -1.2688 C   0  0  0  0  0  0  0  0  0  0  0  0
    2.7212   -2.7393   -0.3894 C   0  0  0  0  0  0  0  0  0  0  0  0
   -2.6071   -0.7397    1.2657 C   0  0  0  0  0  0  0  0  0  0  0  0
   -6.3297    1.8165   -2.0003 H   0  0  0  0  0  0  0  0  0  0  0  0
   -4.8790    2.7659   -1.5834 H   0  0  0  0  0  0  0  0  0  0  0  0
   -4.7892    1.5837   -2.9847 H   0  0  0  0  0  0  0  0  0  0  0  0
   -5.0540   -2.1701    0.3303 H   0  0  0  0  0  0  0  0  0  0  0  0
   -2.6919    2.6277   -0.6629 H   0  0  0  0  0  0  0  0  0  0  0  0
   -0.8500    2.1111    0.9199 H   0  0  0  0  0  0  0  0  0  0  0  0
   -0.7239   -0.2687    3.4157 H   0  0  0  0  0  0  0  0  0  0  0  0
    0.1853    0.8440    2.3929 H   0  0  0  0  0  0  0  0  0  0  0  0
    1.4241   -4.1322    1.7106 H   0  0  0  0  0  0  0  0  0  0  0  0
    1.2664    0.8443   -0.0161 H   0  0  0  0  0  0  0  0  0  0  0  0
    4.7860    2.7561   -2.8798 H   0  0  0  0  0  0  0  0  0  0  0  0
    3.2105    3.5543   -3.4031 H   0  0  0  0  0  0  0  0  0  0  0  0
    4.4489    1.6105   -4.8297 H   0  0  0  0  0  0  0  0  0  0  0  0
    2.6214    1.7066   -4.7320 H   0  0  0  0  0  0  0  0  0  0  0  0
    3.0717   -0.5273   -3.8883 H   0  0  0  0  0  0  0  0  0  0  0  0
    4.6795    0.0253   -3.2106 H   0  0  0  0  0  0  0  0  0  0  0  0
    3.8429   -1.9335   -2.0566 H   0  0  0  0  0  0  0  0  0  0  0  0
    3.0959   -3.7364   -0.4576 H   0  0  0  0  0  0  0  0  0  0  0  0
   -2.5617   -1.6729    1.8157 H   0  0  0  0  0  0  0  0  0  0  0  0
  1  2  1  0
  2  3  1  0
  3  4  2  0
  4  5  1  0
  5  6  2  0
  6  7  1  0
  7  8  2  0
  8  9  1  0
  9 10  1  0
 10 11  1  0
 11 12  2  0
 12 13  1  0
 13 14  1  0
 14 15  2  0
 15 16  1  0
 16 17  2  0
 17 18  1  0
 18 19  1  0
 19 20  1  0
 20 21  1  0
 21 22  1  0
 19 23  2  0
 17 24  1  0
 24 25  2  0
  9 26  2  0
  6  2  1  0
 26  5  1  0
 15 11  1  0
 25 14  1  0
 22 18  1  0
  1 27  1  0
  1 28  1  0
  1 29  1  0
  4 30  1  0
  7 31  1  0
  8 32  1  0
 10 33  1  0
 10 34  1  0
 13 35  1  0
 16 36  1  0
 20 37  1  0
 20 38  1  0
 21 39  1  0
 21 40  1  0
 22 41  1  0
 22 42  1  0
 24 43  1  0
 25 44  1  0
 26 45  1  0
M  END
$$$$
2I0
     RDKit          3D

 42 45  0  0  0  0  0  0  0  0999 V2000
   -2.7957    2.9955   -0.8550 C   0  0  0  0  0  0  0  0  0  0  0  0
   -2.7222    1.6829   -0.1189 C   0  0  0  0  0  0  0  0  0  0  0  0
   -3.7185    0.7226   -0.2959 C   0  0  0  0  0  0  0  0  0  0  0  0
   -3.6577   -0.4929    0.3952 C   0  0  0  0  0  0  0  0  0  0  0  0
   -2.6010   -0.7414    1.2588 C   0  0  0  0  0  0  0  0  0  0  0  0
   -1.5927    0.1933    1.4565 C   0  0  0  0  0  0  0  0  0  0  0  0
   -0.4489   -0.0657    2.4023 C   0  0  0  0  0  0  0  0  0  0  0  0
    0.3821   -1.1552    1.8161 C   0  0  0  0  0  0  0  0  0  0  0  0
    0.3500   -2.4049    2.3440 N   0  0  0  0  0  0  0  0  0  0  0  0
    1.2002   -3.1000    1.5893 N   0  0  0  0  0  0  0  0  0  0  0  0
    1.7966   -2.3800    0.5871 C   0  0  0  0  0  0  0  0  0  0  0  0
    2.7145   -2.7165   -0.3914 C   0  0  0  0  0  0  0  0  0  0  0  0
    3.1240   -1.7344   -1.2727 C   0  0  0  0  0  0  0  0  0  0  0  0
    2.6188   -0.4171   -1.1784 C   0  0  0  0  0  0  0  0  0  0  0  0
    1.6933   -0.0923   -0.1857 C   0  0  0  0  0  0  0  0  0  0  0  0
    1.2664   -1.0904    0.7230 C   0  0  0  0  0  0  0  0  0  0  0  0
    3.0558    0.5681   -2.0907 N   0  0  0  0  0  0  0  0  0  0  0  0
    3.5682    0.3015   -3.4462 C   0  0  0  0  0  0  0  0  0  0  0  0
    3.3768    1.6041   -4.1628 C   0  0  0  0  0  0  0  0  0  0  0  0
    3.7243    2.6092   -3.0664 C   0  0  0  0  0  0  0  0  0  0  0  0
    3.0891    1.9667   -1.8842 C   0  0  0  0  0  0  0  0  0  0  0  0
    2.6373    2.5310   -0.8410 O   0  0  0  0  0  0  0  0  0  0  0  0
   -1.6693    1.4152    0.7514 C   0  0  0  0  0  0  0  0  0  0  0  0
   -1.7956    3.4619   -0.8077 H   0  0  0  0  0  0  0  0  0  0  0  0
   -3.4607    3.6340   -0.2019 H   0  0  0  0  0  0  0  0  0  0  0  0
   -3.2191    2.8973   -1.8544 H   0  0  0  0  0  0  0  0  0  0  0  0
   -4.5487    0.8976   -0.9645 H   0  0  0  0  0  0  0  0  0  0  0  0
   -4.4475   -1.2098    0.2311 H   0  0  0  0  0  0  0  0  0  0  0  0
   -2.5729   -1.6658    1.7722 H   0  0  0  0  0  0  0  0  0  0  0  0
   -0.7391   -0.2733    3.4126 H   0  0  0  0  0  0  0  0  0  0  0  0
    0.1897    0.8388    2.3840 H   0  0  0  0  0  0  0  0  0  0  0  0
    1.4312   -4.1181    1.7091 H   0  0  0  0  0  0  0  0  0  0  0  0
    3.1016   -3.6965   -0.4737 H   0  0  0  0  0  0  0  0  0  0  0  0
    3.8313   -1.9758   -2.0342 H   0  0  0  0  0  0  0  0  0  0  0  0
    1.2527    0.8488   -0.0237 H   0  0  0  0  0  0  0  0  0  0  0  0
    3.0311   -0.5341   -3.9269 H   0  0  0  0  0  0  0  0  0  0  0  0
    4.6596    0.1247   -3.3334 H   0  0  0  0  0  0  0  0  0  0  0  0
    4.1124    1.6546   -5.0098 H   0  0  0  0  0  0  0  0  0  0  0  0
    2.3384    1.7789   -4.4882 H   0  0  0  0  0  0  0  0  0  0  0  0
    4.8336    2.5839   -2.9778 H   0  0  0  0  0  0  0  0  0  0  0  0
    3.3320    3.6066   -3.2901 H   0  0  0  0  0  0  0  0  0  0  0  0
   -0.8832    2.1094    0.9245 H   0  0  0  0  0  0  0  0  0  0  0  0
  1  2  1  0
  2  3  2  0
  3  4  1  0
  4  5  2  0
  5  6  1  0
  6  7  1  0
  7  8  1  0
  8  9  2  0
  9 10  1  0
 10 11  1  0
 11 12  2  0
 12 13  1  0
 13 14  2  0
 14 15  1  0
 15 16  2  0
 14 17  1  0
 17 18  1  0
 18 19  1  0
 19 20  1  0
 20 21  1  0
 21 22  2  0
  6 23  2  0
 23  2  1  0
 16  8  1  0
 16 11  1  0
 21 17  1  0
  1 24  1  0
  1 25  1  0
  1 26  1  0
  3 27  1  0
  4 28  1  0
  5 29  1  0
  7 30  1  0
  7 31  1  0
 10 32  1  0
 12 33  1  0
 13 34  1  0
 15 35  1  0
 18 36  1  0
 18 37  1  0
 19 38  1  0
 19 39  1  0
 20 40  1  0
 20 41  1  0
 23 42  1  0
M  END
$$$$
2I1
     RDKit          3D

 38 41  0  0  0  0  0  0  0  0999 V2000
   -5.7184    0.7229   -1.7155 C   0  0  0  0  0  0  0  0  0  0  0  0
   -4.5260    1.3254   -1.1960 N   0  0  0  0  0  0  0  0  0  0  0  0
   -4.0884    2.5340   -1.5387 N   0  0  0  0  0  0  0  0  0  0  0  0
   -2.9367    2.8169   -0.8774 C   0  0  0  0  0  0  0  0  0  0  0  0
   -2.6947    1.7122   -0.1104 C   0  0  0  0  0  0  0  0  0  0  0  0
   -1.6497    1.4383    0.7749 C   0  0  0  0  0  0  0  0  0  0  0  0
   -1.5782    0.2172    1.4835 C   0  0  0  0  0  0  0  0  0  0  0  0
   -0.4398   -0.0644    2.4142 C   0  0  0  0  0  0  0  0  0  0  0  0
    0.3851   -1.1580    1.8219 C   0  0  0  0  0  0  0  0  0  0  0  0
    0.3441   -2.4094    2.3353 N   0  0  0  0  0  0  0  0  0  0  0  0
    1.1910   -3.1030    1.5727 N   0  0  0  0  0  0  0  0  0  0  0  0
    1.7900   -2.3746    0.5812 C   0  0  0  0  0  0  0  0  0  0  0  0
    2.7127   -2.7225   -0.4070 C   0  0  0  0  0  0  0  0  0  0  0  0
    3.1195   -1.7188   -1.2741 C   0  0  0  0  0  0  0  0  0  0  0  0
    2.6354   -0.4144   -1.1738 C   0  0  0  0  0  0  0  0  0  0  0  0
    1.7059   -0.0847   -0.1711 C   0  0  0  0  0  0  0  0  0  0  0  0
    1.2727   -1.0849    0.7264 C   0  0  0  0  0  0  0  0  0  0  0  0
    3.1218    0.5960   -2.1481 C   0  0  0  0  0  0  0  0  0  0  0  0
    3.0269    1.9095   -1.8314 N   0  0  0  0  0  0  0  0  0  0  0  0
    3.6055    0.2670   -3.2254 O   0  0  0  0  0  0  0  0  0  0  0  0
   -2.5941   -0.7160    1.2692 C   0  0  0  0  0  0  0  0  0  0  0  0
   -3.6456   -0.4509    0.3838 C   0  0  0  0  0  0  0  0  0  0  0  0
   -3.6962    0.7565   -0.3026 C   0  0  0  0  0  0  0  0  0  0  0  0
   -6.4024    1.5143   -2.0853 H   0  0  0  0  0  0  0  0  0  0  0  0
   -6.1906    0.1017   -0.9257 H   0  0  0  0  0  0  0  0  0  0  0  0
   -5.4066    0.1047   -2.5932 H   0  0  0  0  0  0  0  0  0  0  0  0
   -2.3243    3.6989   -0.9203 H   0  0  0  0  0  0  0  0  0  0  0  0
   -0.8668    2.1329    0.9531 H   0  0  0  0  0  0  0  0  0  0  0  0
    0.1905    0.8477    2.4238 H   0  0  0  0  0  0  0  0  0  0  0  0
   -0.7167   -0.2770    3.4294 H   0  0  0  0  0  0  0  0  0  0  0  0
    1.3894   -4.1187    1.7105 H   0  0  0  0  0  0  0  0  0  0  0  0
    3.0511   -3.7349   -0.4394 H   0  0  0  0  0  0  0  0  0  0  0  0
    3.8278   -1.9485   -2.0471 H   0  0  0  0  0  0  0  0  0  0  0  0
    1.2747    0.8544   -0.0020 H   0  0  0  0  0  0  0  0  0  0  0  0
    3.7672    2.4750   -1.3762 H   0  0  0  0  0  0  0  0  0  0  0  0
    2.1352    2.4488   -2.0493 H   0  0  0  0  0  0  0  0  0  0  0  0
   -2.5667   -1.6581    1.7970 H   0  0  0  0  0  0  0  0  0  0  0  0
   -4.4357   -1.1487    0.2017 H   0  0  0  0  0  0  0  0  0  0  0  0
  1  2  1  0
  2  3  1  0
  3  4  2  0
  4  5  1  0
  5  6  2  0
  6  7  1  0
  7  8  1  0
  8  9  1  0
  9 10  2  0
 10 11  1  0
 11 12  1  0
 12 13  2  0
 13 14  1  0
 14 15  2  0
 15 16  1  0
 16 17  2  0
 15 18  1  0
 18 19  1  0
 18 20  2  0
  7 21  2  0
 21 22  1  0
 22 23  2  0
 23  2  1  0
 23  5  1  0
 17  9  1  0
 17 12  1  0
  1 24  1  0
  1 25  1  0
  1 26  1  0
  4 27  1  0
  6 28  1  0
  8 29  1  0
  8 30  1  0
 11 31  1  0
 13 32  1  0
 14 33  1  0
 16 34  1  0
 19 35  1  0
 19 36  1  0
 21 37  1  0
 22 38  1  0
M  END
$$$$
2PA
     RDKit          3D

 35 37  0  0  0  0  0  0  0  0999 V2000
    3.5794    0.2579   -3.2508 O   0  0  0  0  0  0  0  0  0  0  0  0
    3.1005    0.5881   -2.1734 C   0  0  0  0  0  0  0  0  0  0  0  0
    2.6232   -0.4178   -1.1865 C   0  0  0  0  0  0  0  0  0  0  0  0
    3.1159   -1.7252   -1.2897 C   0  0  0  0  0  0  0  0  0  0  0  0
    2.7139   -2.7274   -0.3998 C   0  0  0  0  0  0  0  0  0  0  0  0
    1.6888   -0.0856   -0.1905 C   0  0  0  0  0  0  0  0  0  0  0  0
    1.2730   -1.0834    0.7134 C   0  0  0  0  0  0  0  0  0  0  0  0
    1.7943   -2.3658    0.5884 C   0  0  0  0  0  0  0  0  0  0  0  0
    1.2076   -3.0920    1.5884 N   0  0  0  0  0  0  0  0  0  0  0  0
    0.3636   -2.3894    2.3607 N   0  0  0  0  0  0  0  0  0  0  0  0
    0.3752   -1.1602    1.8192 C   0  0  0  0  0  0  0  0  0  0  0  0
   -0.4592   -0.0729    2.4173 C   0  0  0  0  0  0  0  0  0  0  0  0
   -1.5922    0.1992    1.4545 C   0  0  0  0  0  0  0  0  0  0  0  0
   -1.6698    1.4259    0.7742 C   0  0  0  0  0  0  0  0  0  0  0  0
   -2.7147    1.6900   -0.1222 C   0  0  0  0  0  0  0  0  0  0  0  0
   -2.7950    3.0138   -0.8234 C   0  0  0  0  0  0  0  0  0  0  0  0
   -3.7105    0.7261   -0.3117 C   0  0  0  0  0  0  0  0  0  0  0  0
   -3.6524   -0.4906    0.3663 C   0  0  0  0  0  0  0  0  0  0  0  0
   -2.6016   -0.7525    1.2445 C   0  0  0  0  0  0  0  0  0  0  0  0
    3.0277    1.9070   -1.8179 N   0  0  0  0  0  0  0  0  0  0  0  0
    3.8268   -1.9725   -2.0776 H   0  0  0  0  0  0  0  0  0  0  0  0
    3.1001   -3.7381   -0.4845 H   0  0  0  0  0  0  0  0  0  0  0  0
    1.2610    0.9080   -0.1271 H   0  0  0  0  0  0  0  0  0  0  0  0
    1.3467   -4.0731    1.8004 H   0  0  0  0  0  0  0  0  0  0  0  0
   -0.8659   -0.3616    3.3938 H   0  0  0  0  0  0  0  0  0  0  0  0
    0.1516    0.8235    2.5750 H   0  0  0  0  0  0  0  0  0  0  0  0
   -0.9098    2.1861    0.9422 H   0  0  0  0  0  0  0  0  0  0  0  0
   -3.3515    2.9278   -1.7629 H   0  0  0  0  0  0  0  0  0  0  0  0
   -1.7941    3.3824   -1.0717 H   0  0  0  0  0  0  0  0  0  0  0  0
   -3.2961    3.7465   -0.1831 H   0  0  0  0  0  0  0  0  0  0  0  0
   -4.5391    0.9168   -0.9898 H   0  0  0  0  0  0  0  0  0  0  0  0
   -4.4272   -1.2368    0.2114 H   0  0  0  0  0  0  0  0  0  0  0  0
   -2.5680   -1.7081    1.7657 H   0  0  0  0  0  0  0  0  0  0  0  0
    2.9203    2.1983   -0.8575 H   0  0  0  0  0  0  0  0  0  0  0  0
    3.4772    2.5555   -2.4522 H   0  0  0  0  0  0  0  0  0  0  0  0
  1  2  2  0
  2  3  1  0
  3  4  2  0
  4  5  1  0
  3  6  1  0
  6  7  2  0
  7  8  1  0
  8  9  1  0
  9 10  1  0
 10 11  2  0
 11 12  1  0
 12 13  1  0
 13 14  2  0
 14 15  1  0
 15 16  1  0
 15 17  2  0
 17 18  1  0
 18 19  2  0
  2 20  1  0
  8  5  2  0
 11  7  1  0
 19 13  1  0
  4 21  1  0
  5 22  1  0
  6 23  1  0
  9 24  1  0
 12 25  1  0
 12 26  1  0
 14 27  1  0
 16 28  1  0
 16 29  1  0
 16 30  1  0
 17 31  1  0
 18 32  1  0
 19 33  1  0
 20 34  1  0
 20 35  1  0
M  END
$$$$
