6PB
     RDKit          3D

 55 58  0  0  0  0  0  0  0  0999 V2000
   -3.6161   -2.6897    0.3489 C   0  0  0  0  0  0  0  0  0  0  0  0
   -3.0060   -1.3921    0.4542 N   0  0  0  0  0  0  0  0  0  0  0  0
   -1.6493   -1.2264    0.7867 C   0  0  0  0  0  0  0  0  0  0  0  0
   -1.1142    0.1643    0.8591 C   0  0  0  0  0  0  0  0  0  0  0  0
   -0.1491    0.4966   -0.0995 C   0  0  0  0  0  0  0  0  0  0  0  0
    0.3959    1.8006   -0.1028 C   0  0  0  0  0  0  0  0  0  0  0  0
   -0.0546    2.7021    0.8507 C   0  0  0  0  0  0  0  0  0  0  0  0
    0.6310    3.8583    0.5912 N   0  0  0  0  0  0  0  0  0  0  0  0
    1.4766    3.7754   -0.4409 N   0  0  0  0  0  0  0  0  0  0  0  0
    1.3396    2.4984   -0.8801 C   0  0  0  0  0  0  0  0  0  0  0  0
    2.1595    2.0143   -2.0226 C   0  0  0  0  0  0  0  0  0  0  0  0
    3.3409    1.2701   -1.4424 C   0  0  0  0  0  0  0  0  0  0  0  0
    3.3707   -0.1272   -1.3905 C   0  0  0  0  0  0  0  0  0  0  0  0
    4.4781   -0.8030   -0.8395 C   0  0  0  0  0  0  0  0  0  0  0  0
    5.5403   -0.0608   -0.3480 C   0  0  0  0  0  0  0  0  0  0  0  0
    5.5271    1.3235   -0.3926 C   0  0  0  0  0  0  0  0  0  0  0  0
    4.4359    1.9860   -0.9360 C   0  0  0  0  0  0  0  0  0  0  0  0
    6.6850   -0.7529    0.2076 C   0  0  0  0  0  0  0  0  0  0  0  0
    7.8705   -0.1560    0.6589 C   0  0  0  0  0  0  0  0  0  0  0  0
    8.6980   -1.1136    1.0856 N   0  0  0  0  0  0  0  0  0  0  0  0
    8.0711   -2.2875    0.9149 N   0  0  0  0  0  0  0  0  0  0  0  0
    6.8704   -2.1110    0.3952 C   0  0  0  0  0  0  0  0  0  0  0  0
   10.0001   -0.9882    1.6391 C   0  0  0  0  0  0  0  0  0  0  0  0
   10.0503   -0.8616    3.1337 C   0  0  0  0  0  0  0  0  0  0  0  0
   11.5489   -0.7386    3.4862 C   0  0  0  0  0  0  0  0  0  0  0  0
    9.5868   -2.0294    3.7343 O   0  0  0  0  0  0  0  0  0  0  0  0
    9.3868    0.3767    3.6819 C   0  0  0  0  0  0  0  0  0  0  0  0
   -1.0223    2.3910    1.8223 C   0  0  0  0  0  0  0  0  0  0  0  0
   -1.5433    1.0884    1.7999 C   0  0  0  0  0  0  0  0  0  0  0  0
   -0.8787   -2.1426    1.0160 O   0  0  0  0  0  0  0  0  0  0  0  0
   -3.6957   -2.9848   -0.7207 H   0  0  0  0  0  0  0  0  0  0  0  0
   -3.0736   -3.4698    0.9150 H   0  0  0  0  0  0  0  0  0  0  0  0
   -4.6442   -2.5751    0.7919 H   0  0  0  0  0  0  0  0  0  0  0  0
   -3.5710   -0.5241    0.2805 H   0  0  0  0  0  0  0  0  0  0  0  0
    0.2351   -0.1280   -0.8542 H   0  0  0  0  0  0  0  0  0  0  0  0
    0.4743    4.7041    1.1797 H   0  0  0  0  0  0  0  0  0  0  0  0
    1.5582    1.2367   -2.5416 H   0  0  0  0  0  0  0  0  0  0  0  0
    2.4410    2.8153   -2.6927 H   0  0  0  0  0  0  0  0  0  0  0  0
    2.5608   -0.7107   -1.7606 H   0  0  0  0  0  0  0  0  0  0  0  0
    4.5278   -1.8745   -0.7833 H   0  0  0  0  0  0  0  0  0  0  0  0
    6.3904    1.8493    0.0005 H   0  0  0  0  0  0  0  0  0  0  0  0
    4.4267    3.0550   -0.9684 H   0  0  0  0  0  0  0  0  0  0  0  0
    8.0680    0.9068    0.6535 H   0  0  0  0  0  0  0  0  0  0  0  0
    6.1757   -2.8981    0.1664 H   0  0  0  0  0  0  0  0  0  0  0  0
   10.5854   -1.9021    1.3862 H   0  0  0  0  0  0  0  0  0  0  0  0
   10.5803   -0.1449    1.1961 H   0  0  0  0  0  0  0  0  0  0  0  0
   12.0933   -1.6217    3.1497 H   0  0  0  0  0  0  0  0  0  0  0  0
   11.6717   -0.4867    4.5638 H   0  0  0  0  0  0  0  0  0  0  0  0
   11.9566    0.1352    2.9086 H   0  0  0  0  0  0  0  0  0  0  0  0
    9.4769   -1.7911    4.7116 H   0  0  0  0  0  0  0  0  0  0  0  0
    8.9300    1.0289    2.9410 H   0  0  0  0  0  0  0  0  0  0  0  0
    8.6748    0.0309    4.4912 H   0  0  0  0  0  0  0  0  0  0  0  0
   10.1312    1.0160    4.2446 H   0  0  0  0  0  0  0  0  0  0  0  0
   -1.3378    3.1069    2.5321 H   0  0  0  0  0  0  0  0  0  0  0  0
   -2.2978    0.7763    2.5209 H   0  0  0  0  0  0  0  0  0  0  0  0
  1  2  1  0
  2  3  1  0
  3  4  1  0
  4  5  2  0
  5  6  1  0
  6  7  2  0
  7  8  1  0
  8  9  1  0
  9 10  2  0
 10 11  1  0
 11 12  1  0
 12 13  2  0
 13 14  1  0
 14 15  2  0
 15 16  1  0
 16 17  2  0
 15 18  1  0
 18 19  2  0
 19 20  1  0
 20 21  1  0
 21 22  2  0
 20 23  1  0
 23 24  1  0
 24 25  1  0
 24 26  1  0
 24 27  1  0
  7 28  1  0
 28 29  2  0
  3 30  2  0
 29  4  1  0
 10  6  1  0
 17 12  1  0
 22 18  1  0
  1 31  1  0
  1 32  1  0
  1 33  1  0
  2 34  1  0
  5 35  1  0
  8 36  1  0
 11 37  1  0
 11 38  1  0
 13 39  1  0
 14 40  1  0
 16 41  1  0
 17 42  1  0
 19 43  1  0
 22 44  1  0
 23 45  1  0
 23 46  1  0
 25 47  1  0
 25 48  1  0
 25 49  1  0
 26 50  1  0
 27 51  1  0
 27 52  1  0
 27 53  1  0
 28 54  1  0
 29 55  1  0
M  END
$$$$
6I0
     RDKit          3D

 46 49  0  0  0  0  0  0  0  0999 V2000
    4.4400   -2.3100   -0.7833 C   0  0  0  0  0  0  0  0  0  0  0  0
    4.4635   -0.8130   -0.8277 C   0  0  0  0  0  0  0  0  0  0  0  0
    3.3717   -0.1162   -1.3857 C   0  0  0  0  0  0  0  0  0  0  0  0
    3.3460    1.2718   -1.4428 C   0  0  0  0  0  0  0  0  0  0  0  0
    2.1777    2.0378   -2.0104 C   0  0  0  0  0  0  0  0  0  0  0  0
    1.3591    2.5105   -0.8649 C   0  0  0  0  0  0  0  0  0  0  0  0
    1.4902    3.7818   -0.4166 N   0  0  0  0  0  0  0  0  0  0  0  0
    0.6359    3.8594    0.5986 N   0  0  0  0  0  0  0  0  0  0  0  0
   -0.0575    2.7088    0.8493 C   0  0  0  0  0  0  0  0  0  0  0  0
    0.3999    1.7970   -0.1019 C   0  0  0  0  0  0  0  0  0  0  0  0
   -0.1564    0.5037   -0.1273 C   0  0  0  0  0  0  0  0  0  0  0  0
   -1.1454    0.1660    0.7851 C   0  0  0  0  0  0  0  0  0  0  0  0
   -1.6563   -1.2161    0.7298 C   0  0  0  0  0  0  0  0  0  0  0  0
   -2.9970   -1.3981    0.4500 N   0  0  0  0  0  0  0  0  0  0  0  0
   -3.9682   -0.3664    0.1573 C   0  0  0  0  0  0  0  0  0  0  0  0
   -5.1424   -1.1473   -0.4854 C   0  0  0  0  0  0  0  0  0  0  0  0
   -5.0844   -2.4625    0.2836 C   0  0  1  0  0  0  0  0  0  0  0  0
   -3.5760   -2.7266    0.4094 C   0  0  0  0  0  0  0  0  0  0  0  0
   -5.6487   -2.2800    1.5923 O   0  0  0  0  0  0  0  0  0  0  0  0
   -0.8917   -2.1524    0.9174 O   0  0  0  0  0  0  0  0  0  0  0  0
   -1.5786    1.1150    1.7293 C   0  0  0  0  0  0  0  0  0  0  0  0
   -1.0417    2.4011    1.7779 C   0  0  0  0  0  0  0  0  0  0  0  0
    4.4496    1.9838   -0.9255 C   0  0  0  0  0  0  0  0  0  0  0  0
    5.5319    1.3063   -0.3738 C   0  0  0  0  0  0  0  0  0  0  0  0
    5.5371   -0.0817   -0.3257 C   0  0  0  0  0  0  0  0  0  0  0  0
    4.6122   -2.6827    0.2574 H   0  0  0  0  0  0  0  0  0  0  0  0
    3.4956   -2.6465   -1.2078 H   0  0  0  0  0  0  0  0  0  0  0  0
    5.2534   -2.6527   -1.4678 H   0  0  0  0  0  0  0  0  0  0  0  0
    2.5408   -0.6517   -1.7759 H   0  0  0  0  0  0  0  0  0  0  0  0
    2.4668    2.8556   -2.6628 H   0  0  0  0  0  0  0  0  0  0  0  0
    1.6323    1.2960   -2.6322 H   0  0  0  0  0  0  0  0  0  0  0  0
    0.4731    4.7136    1.1884 H   0  0  0  0  0  0  0  0  0  0  0  0
    0.2624   -0.1169   -0.8833 H   0  0  0  0  0  0  0  0  0  0  0  0
   -3.5278    0.2653   -0.6648 H   0  0  0  0  0  0  0  0  0  0  0  0
   -4.2845    0.1978    1.0304 H   0  0  0  0  0  0  0  0  0  0  0  0
   -4.8302   -1.3686   -1.5073 H   0  0  0  0  0  0  0  0  0  0  0  0
   -6.0864   -0.6278   -0.3665 H   0  0  0  0  0  0  0  0  0  0  0  0
   -5.6013   -3.2870   -0.2222 H   0  0  0  0  0  0  0  0  0  0  0  0
   -3.2052   -3.3489   -0.4005 H   0  0  0  0  0  0  0  0  0  0  0  0
   -3.4456   -3.1851    1.4253 H   0  0  0  0  0  0  0  0  0  0  0  0
   -6.6126   -2.1249    1.3901 H   0  0  0  0  0  0  0  0  0  0  0  0
   -2.3377    0.8138    2.4158 H   0  0  0  0  0  0  0  0  0  0  0  0
   -1.3569    3.1339    2.4917 H   0  0  0  0  0  0  0  0  0  0  0  0
    4.4451    3.0485   -0.9615 H   0  0  0  0  0  0  0  0  0  0  0  0
    6.3850    1.8325    0.0232 H   0  0  0  0  0  0  0  0  0  0  0  0
    6.3490   -0.6411    0.0951 H   0  0  0  0  0  0  0  0  0  0  0  0
  1  2  1  0
  2  3  2  0
  3  4  1  0
  4  5  1  0
  5  6  1  0
  6  7  2  0
  7  8  1  0
  8  9  1  0
  9 10  2  0
 10 11  1  0
 11 12  2  0
 12 13  1  0
 13 14  1  0
 14 15  1  0
 15 16  1  0
 16 17  1  0
 17 18  1  0
 17 19  1  0
 13 20  2  0
 12 21  1  0
 21 22  2  0
  4 23  2  0
 23 24  1  0
 24 25  2  0
 25  2  1  0
 10  6  1  0
 22  9  1  0
 18 14  1  0
  1 26  1  0
  1 27  1  0
  1 28  1  0
  3 29  1  0
  5 30  1  0
  5 31  1  0
  8 32  1  0
 11 33  1  0
 15 34  1  0
 15 35  1  0
 16 36  1  0
 16 37  1  0
 17 38  1  6
 18 39  1  0
 18 40  1  0
 19 41  1  0
 21 42  1  0
 22 43  1  0
 23 44  1  0
 24 45  1  0
 25 46  1  0
M  END
$$$$
6I1
     RDKit          3D

 64 68  0  0  0  0  0  0  0  0999 V2000
   10.0724   -5.5054    0.6376 C   0  0  0  0  0  0  0  0  0  0  0  0
    9.6441   -4.0831    0.2713 C   0  0  0  0  0  0  0  0  0  0  0  0
   10.7807   -3.2329    0.3850 O   0  0  0  0  0  0  0  0  0  0  0  0
    8.6307   -3.6438    1.2636 C   0  0  0  0  0  0  0  0  0  0  0  0
    8.0881   -2.3314    1.0269 N   0  0  0  0  0  0  0  0  0  0  0  0
    6.9096   -2.1197    0.3585 C   0  0  0  0  0  0  0  0  0  0  0  0
    6.6388   -0.7854    0.2524 C   0  0  0  0  0  0  0  0  0  0  0  0
    7.7367   -0.1719    0.9023 C   0  0  0  0  0  0  0  0  0  0  0  0
    8.5261   -1.1479    1.3232 N   0  0  0  0  0  0  0  0  0  0  0  0
    5.5247   -0.0905   -0.3740 C   0  0  0  0  0  0  0  0  0  0  0  0
    4.4587   -0.8030   -0.8556 C   0  0  0  0  0  0  0  0  0  0  0  0
    3.3541   -0.1125   -1.4041 C   0  0  0  0  0  0  0  0  0  0  0  0
    3.3270    1.2778   -1.4666 C   0  0  0  0  0  0  0  0  0  0  0  0
    2.1567    2.0403   -2.0248 C   0  0  0  0  0  0  0  0  0  0  0  0
    1.3294    2.5168   -0.8833 C   0  0  0  0  0  0  0  0  0  0  0  0
    1.4933    3.7699   -0.3988 N   0  0  0  0  0  0  0  0  0  0  0  0
    0.6629    3.8397    0.6396 N   0  0  0  0  0  0  0  0  0  0  0  0
   -0.0523    2.7072    0.8857 C   0  0  0  0  0  0  0  0  0  0  0  0
    0.3770    1.8077   -0.1203 C   0  0  0  0  0  0  0  0  0  0  0  0
   -0.2030    0.5246   -0.1507 C   0  0  0  0  0  0  0  0  0  0  0  0
   -1.1613    0.1849    0.8099 C   0  0  0  0  0  0  0  0  0  0  0  0
   -1.6585   -1.2148    0.8171 C   0  0  0  0  0  0  0  0  0  0  0  0
   -2.9732   -1.4110    0.3960 N   0  0  0  0  0  0  0  0  0  0  0  0
   -3.9246   -0.4150   -0.0635 C   0  0  0  0  0  0  0  0  0  0  0  0
   -5.1313   -1.2011   -0.5268 C   0  0  0  0  0  0  0  0  0  0  0  0
   -5.0747   -2.4706    0.3039 C   0  0  1  0  0  0  0  0  0  0  0  0
   -3.5625   -2.7409    0.4224 C   0  0  0  0  0  0  0  0  0  0  0  0
   -5.6735   -2.2455    1.5715 O   0  0  0  0  0  0  0  0  0  0  0  0
   -0.9015   -2.0902    1.2073 O   0  0  0  0  0  0  0  0  0  0  0  0
   -1.5428    1.1108    1.7976 C   0  0  0  0  0  0  0  0  0  0  0  0
   -2.4838    0.7509    2.7311 O   0  0  0  0  0  0  0  0  0  0  0  0
   -0.9907    2.3805    1.8394 C   0  0  0  0  0  0  0  0  0  0  0  0
    4.4416    1.9827   -0.9615 C   0  0  0  0  0  0  0  0  0  0  0  0
    5.5224    1.3065   -0.4248 C   0  0  0  0  0  0  0  0  0  0  0  0
    9.1831   -4.0618   -1.1551 C   0  0  0  0  0  0  0  0  0  0  0  0
    9.2459   -6.1797    0.2576 H   0  0  0  0  0  0  0  0  0  0  0  0
   10.1806   -5.6451    1.7036 H   0  0  0  0  0  0  0  0  0  0  0  0
   10.9781   -5.8116    0.0471 H   0  0  0  0  0  0  0  0  0  0  0  0
   10.6406   -2.4783   -0.2400 H   0  0  0  0  0  0  0  0  0  0  0  0
    7.8165   -4.4249    1.3030 H   0  0  0  0  0  0  0  0  0  0  0  0
    9.0500   -3.6687    2.3142 H   0  0  0  0  0  0  0  0  0  0  0  0
    6.2716   -2.9230   -0.0207 H   0  0  0  0  0  0  0  0  0  0  0  0
    7.8444    0.8866    0.9833 H   0  0  0  0  0  0  0  0  0  0  0  0
    4.4247   -1.8748   -0.8400 H   0  0  0  0  0  0  0  0  0  0  0  0
    2.5027   -0.6472   -1.7893 H   0  0  0  0  0  0  0  0  0  0  0  0
    1.5841    1.3085   -2.6618 H   0  0  0  0  0  0  0  0  0  0  0  0
    2.4308    2.8596   -2.6777 H   0  0  0  0  0  0  0  0  0  0  0  0
    0.5352    4.6745    1.2398 H   0  0  0  0  0  0  0  0  0  0  0  0
    0.1634   -0.1005   -0.9282 H   0  0  0  0  0  0  0  0  0  0  0  0
   -3.5234    0.1407   -0.9331 H   0  0  0  0  0  0  0  0  0  0  0  0
   -4.3007    0.2432    0.7429 H   0  0  0  0  0  0  0  0  0  0  0  0
   -6.0736   -0.6577   -0.3402 H   0  0  0  0  0  0  0  0  0  0  0  0
   -5.0124   -1.5206   -1.5864 H   0  0  0  0  0  0  0  0  0  0  0  0
   -5.5583   -3.3187   -0.2139 H   0  0  0  0  0  0  0  0  0  0  0  0
   -3.2265   -3.3951   -0.3726 H   0  0  0  0  0  0  0  0  0  0  0  0
   -3.3565   -3.1872    1.4188 H   0  0  0  0  0  0  0  0  0  0  0  0
   -6.1318   -1.3871    1.5970 H   0  0  0  0  0  0  0  0  0  0  0  0
   -2.9157   -0.1559    2.7155 H   0  0  0  0  0  0  0  0  0  0  0  0
   -1.2741    3.0915    2.5762 H   0  0  0  0  0  0  0  0  0  0  0  0
    4.3959    3.0618   -1.0038 H   0  0  0  0  0  0  0  0  0  0  0  0
    6.3790    1.8279   -0.0368 H   0  0  0  0  0  0  0  0  0  0  0  0
    8.2954   -3.4126   -1.3198 H   0  0  0  0  0  0  0  0  0  0  0  0
    8.9178   -5.0527   -1.5660 H   0  0  0  0  0  0  0  0  0  0  0  0
   10.0127   -3.6944   -1.8223 H   0  0  0  0  0  0  0  0  0  0  0  0
  1  2  1  0
  2  3  1  0
  2  4  1  0
  4  5  1  0
  5  6  1  0
  6  7  2  0
  7  8  1  0
  8  9  2  0
  7 10  1  0
 10 11  2  0
 11 12  1  0
 12 13  2  0
 13 14  1  0
 14 15  1  0
 15 16  2  0
 16 17  1  0
 17 18  1  0
 18 19  2  0
 19 20  1  0
 20 21  2  0
 21 22  1  0
 22 23  1  0
 23 24  1  0
 24 25  1  0
 25 26  1  0
 26 27  1  0
 26 28  1  0
 22 29  2  0
 21 30  1  0
 30 31  1  0
 30 32  2  0
 13 33  1  0
 33 34  2  0
  2 35  1  0
  9  5  1  0
 34 10  1  0
 19 15  1  0
 32 18  1  0
 27 23  1  0
  1 36  1  0
  1 37  1  0
  1 38  1  0
  3 39  1  0
  4 40  1  0
  4 41  1  0
  6 42  1  0
  8 43  1  0
 11 44  1  0
 12 45  1  0
 14 46  1  0
 14 47  1  0
 17 48  1  0
 20 49  1  0
 24 50  1  0
 24 51  1  0
 25 52  1  0
 25 53  1  0
 26 54  1  6
 27 55  1  0
 27 56  1  0
 28 57  1  0
 31 58  1  0
 32 59  1  0
 33 60  1  0
 34 61  1  0
 35 62  1  0
 35 63  1  0
 35 64  1  0
M  END
$$$$
6PA
     RDKit          3D

 47 50  0  0  0  0  0  0  0  0999 V2000
    4.4415   -2.3074   -0.7752 C   0  0  0  0  0  0  0  0  0  0  0  0
    4.4608   -0.8096   -0.8543 C   0  0  0  0  0  0  0  0  0  0  0  0
    3.3692   -0.1195   -1.3994 C   0  0  0  0  0  0  0  0  0  0  0  0
    3.3483    1.2840   -1.4410 C   0  0  0  0  0  0  0  0  0  0  0  0
    2.1662    2.0223   -2.0250 C   0  0  0  0  0  0  0  0  0  0  0  0
    1.3574    2.5130   -0.8675 C   0  0  0  0  0  0  0  0  0  0  0  0
    1.4727    3.7837   -0.4473 N   0  0  0  0  0  0  0  0  0  0  0  0
    0.6381    3.8558    0.6006 N   0  0  0  0  0  0  0  0  0  0  0  0
   -0.0583    2.7035    0.8490 C   0  0  0  0  0  0  0  0  0  0  0  0
   -1.0119    2.3869    1.8253 C   0  0  0  0  0  0  0  0  0  0  0  0
   -1.5390    1.0903    1.7983 C   0  0  0  0  0  0  0  0  0  0  0  0
   -2.4544    0.7273    2.7500 O   0  0  0  0  0  0  0  0  0  0  0  0
   -1.1380    0.1684    0.8259 C   0  0  0  0  0  0  0  0  0  0  0  0
   -0.1592    0.5021   -0.1246 C   0  0  0  0  0  0  0  0  0  0  0  0
    0.3837    1.7990   -0.1102 C   0  0  0  0  0  0  0  0  0  0  0  0
   -1.6688   -1.2099    0.7805 C   0  0  0  0  0  0  0  0  0  0  0  0
   -2.9996   -1.3908    0.4609 N   0  0  0  0  0  0  0  0  0  0  0  0
   -3.9519   -0.3740    0.0336 C   0  0  0  0  0  0  0  0  0  0  0  0
   -5.1406   -1.1624   -0.5068 C   0  0  0  0  0  0  0  0  0  0  0  0
   -5.0800   -2.4638    0.2864 C   0  0  1  0  0  0  0  0  0  0  0  0
   -3.5779   -2.7250    0.3940 C   0  0  0  0  0  0  0  0  0  0  0  0
   -5.6599   -2.2610    1.5766 O   0  0  0  0  0  0  0  0  0  0  0  0
   -0.8909   -2.1422    0.9687 O   0  0  0  0  0  0  0  0  0  0  0  0
    4.4453    1.9903   -0.9256 C   0  0  0  0  0  0  0  0  0  0  0  0
    5.5310    1.3110   -0.3742 C   0  0  0  0  0  0  0  0  0  0  0  0
    5.5362   -0.0827   -0.3332 C   0  0  0  0  0  0  0  0  0  0  0  0
    5.4566   -2.7128   -0.7061 H   0  0  0  0  0  0  0  0  0  0  0  0
    3.9808   -2.7359   -1.6713 H   0  0  0  0  0  0  0  0  0  0  0  0
    3.8751   -2.6278    0.1047 H   0  0  0  0  0  0  0  0  0  0  0  0
    2.5260   -0.6860   -1.7892 H   0  0  0  0  0  0  0  0  0  0  0  0
    1.5671    1.3639   -2.6647 H   0  0  0  0  0  0  0  0  0  0  0  0
    2.5124    2.8498   -2.6553 H   0  0  0  0  0  0  0  0  0  0  0  0
    0.5825    4.7326    1.1053 H   0  0  0  0  0  0  0  0  0  0  0  0
   -1.3176    3.1186    2.5646 H   0  0  0  0  0  0  0  0  0  0  0  0
   -2.4577    1.3920    3.4591 H   0  0  0  0  0  0  0  0  0  0  0  0
    0.1697   -0.2358   -0.8504 H   0  0  0  0  0  0  0  0  0  0  0  0
   -4.2443    0.2179    0.9058 H   0  0  0  0  0  0  0  0  0  0  0  0
   -3.5089    0.2863   -0.7179 H   0  0  0  0  0  0  0  0  0  0  0  0
   -4.9913   -1.3686   -1.5730 H   0  0  0  0  0  0  0  0  0  0  0  0
   -6.0780   -0.6135   -0.3786 H   0  0  0  0  0  0  0  0  0  0  0  0
   -5.6166   -3.2833   -0.1988 H   0  0  0  0  0  0  0  0  0  0  0  0
   -3.1878   -3.2095   -0.5075 H   0  0  0  0  0  0  0  0  0  0  0  0
   -3.2952   -3.3026    1.2792 H   0  0  0  0  0  0  0  0  0  0  0  0
   -4.9946   -1.8028    2.1239 H   0  0  0  0  0  0  0  0  0  0  0  0
    4.4473    3.0791   -0.9388 H   0  0  0  0  0  0  0  0  0  0  0  0
    6.3699    1.8698    0.0319 H   0  0  0  0  0  0  0  0  0  0  0  0
    6.3843   -0.5980    0.1113 H   0  0  0  0  0  0  0  0  0  0  0  0
  1  2  1  0
  2  3  2  0
  3  4  1  0
  4  5  1  0
  5  6  1  0
  6  7  2  0
  7  8  1  0
  8  9  1  0
  9 10  2  0
 10 11  1  0
 11 12  1  0
 11 13  2  0
 13 14  1  0
 14 15  2  0
 13 16  1  0
 16 17  1  0
 17 18  1  0
 18 19  1  0
 19 20  1  0
 20 21  1  0
 20 22  1  0
 16 23  2  0
  4 24  2  0
 24 25  1  0
 25 26  2  0
 26  2  1  0
 15  6  1  0
 15  9  1  0
 21 17  1  0
  1 27  1  0
  1 28  1  0
  1 29  1  0
  3 30  1  0
  5 31  1  0
  5 32  1  0
  8 33  1  0
 10 34  1  0
 12 35  1  0
 14 36  1  0
 18 37  1  0
 18 38  1  0
 19 39  1  0
 19 40  1  0
 20 41  1  6
 21 42  1  0
 21 43  1  0
 22 44  1  0
 24 45  1  0
 25 46  1  0
 26 47  1  0
M  END
$$$$
