1PB
     RDKit          3D

 47 50  0  0  0  0  0  0  0  0999 V2000
    4.6510   -1.1881   -0.5456 O   0  0  0  0  0  0  0  0  0  0  0  0
    3.2934   -1.1387   -0.3776 C   0  0  0  0  0  0  0  0  0  0  0  0
    2.4426   -2.1702   -0.8458 C   0  0  0  0  0  0  0  0  0  0  0  0
    1.0821   -2.0231   -0.6293 C   0  0  0  0  0  0  0  0  0  0  0  0
    0.5682   -0.8988    0.0294 C   0  0  0  0  0  0  0  0  0  0  0  0
    1.4076    0.0994    0.4873 C   0  0  0  0  0  0  0  0  0  0  0  0
    2.8065   -0.0241    0.2744 C   0  0  0  0  0  0  0  0  0  0  0  0
    3.4417    1.2968    0.5864 C   0  0  0  0  0  0  0  0  0  0  0  0
    3.2127    1.7422    1.9394 N   0  0  0  0  0  0  0  0  0  0  0  0
    2.4833    1.1356    3.0156 C   0  0  0  0  0  0  0  0  0  0  0  0
    3.4772    1.2588    4.1750 C   0  0  0  0  0  0  0  0  0  0  0  0
    4.0460    2.6394    3.9344 C   0  0  1  0  0  0  0  0  0  0  0  0
    3.7312    2.9970    2.5009 C   0  0  0  0  0  0  0  0  0  0  0  0
    3.3693    3.5615    4.7391 O   0  0  0  0  0  0  0  0  0  0  0  0
    4.0451    1.8975   -0.1565 O   0  0  0  0  0  0  0  0  0  0  0  0
   -0.8420   -1.0776    0.0404 C   0  0  0  0  0  0  0  0  0  0  0  0
   -1.8379   -0.0779    0.5674 C   0  0  0  0  0  0  0  0  0  0  0  0
   -2.1760    0.9030   -0.4671 C   0  0  0  0  0  0  0  0  0  0  0  0
   -1.4932    2.0837   -0.5562 C   0  0  0  0  0  0  0  0  0  0  0  0
   -1.8309    3.0141   -1.5439 C   0  0  0  0  0  0  0  0  0  0  0  0
   -1.0723    4.2732   -1.6181 C   0  0  0  0  0  0  0  0  0  0  0  0
   -2.8611    2.6793   -2.3939 C   0  0  0  0  0  0  0  0  0  0  0  0
   -3.5494    1.4928   -2.3057 C   0  0  0  0  0  0  0  0  0  0  0  0
   -3.2257    0.5764   -1.3430 C   0  0  0  0  0  0  0  0  0  0  0  0
   -1.1957   -2.2075   -0.5467 N   0  0  0  0  0  0  0  0  0  0  0  0
   -0.0256   -2.7664   -0.9448 N   0  0  0  0  0  0  0  0  0  0  0  0
    5.1875   -1.9052   -0.9898 H   0  0  0  0  0  0  0  0  0  0  0  0
    2.8413   -3.0015   -1.3346 H   0  0  0  0  0  0  0  0  0  0  0  0
    0.9500    0.9229    0.9939 H   0  0  0  0  0  0  0  0  0  0  0  0
    1.5806    1.7144    3.3027 H   0  0  0  0  0  0  0  0  0  0  0  0
    2.2126    0.0800    2.8386 H   0  0  0  0  0  0  0  0  0  0  0  0
    2.9771    1.1909    5.1623 H   0  0  0  0  0  0  0  0  0  0  0  0
    4.2392    0.4630    4.0170 H   0  0  0  0  0  0  0  0  0  0  0  0
    5.1346    2.6791    4.0823 H   0  0  0  0  0  0  0  0  0  0  0  0
    2.9596    3.7905    2.4233 H   0  0  0  0  0  0  0  0  0  0  0  0
    4.6067    3.3243    1.9228 H   0  0  0  0  0  0  0  0  0  0  0  0
    3.6952    3.5728    5.6686 H   0  0  0  0  0  0  0  0  0  0  0  0
   -2.6261   -0.6497    1.0121 H   0  0  0  0  0  0  0  0  0  0  0  0
   -1.3018    0.4405    1.4380 H   0  0  0  0  0  0  0  0  0  0  0  0
   -0.6938    2.3528    0.1041 H   0  0  0  0  0  0  0  0  0  0  0  0
   -1.5083    5.0166   -0.9239 H   0  0  0  0  0  0  0  0  0  0  0  0
   -0.0034    4.0657   -1.3401 H   0  0  0  0  0  0  0  0  0  0  0  0
   -1.0476    4.6547   -2.6815 H   0  0  0  0  0  0  0  0  0  0  0  0
   -3.1179    3.4129   -3.1588 H   0  0  0  0  0  0  0  0  0  0  0  0
   -4.3682    1.2552   -3.0005 H   0  0  0  0  0  0  0  0  0  0  0  0
   -3.7516   -0.3625   -1.2518 H   0  0  0  0  0  0  0  0  0  0  0  0
    0.0552   -3.6784   -1.4479 H   0  0  0  0  0  0  0  0  0  0  0  0
  1  2  1  0
  2  3  2  0
  3  4  1  0
  4  5  2  0
  5  6  1  0
  6  7  2  0
  7  8  1  0
  8  9  1  0
  9 10  1  0
 10 11  1  0
 11 12  1  0
 12 13  1  0
 12 14  1  0
  8 15  2  0
  5 16  1  0
 16 17  1  0
 17 18  1  0
 18 19  2  0
 19 20  1  0
 20 21  1  0
 20 22  2  0
 22 23  1  0
 23 24  2  0
 16 25  2  0
 25 26  1  0
  7  2  1  0
 26  4  1  0
 13  9  1  0
 24 18  1  0
  1 27  1  0
  3 28  1  0
  6 29  1  0
 10 30  1  0
 10 31  1  0
 11 32  1  0
 11 33  1  0
 12 34  1  6
 13 35  1  0
 13 36  1  0
 14 37  1  0
 17 38  1  0
 17 39  1  0
 19 40  1  0
 21 41  1  0
 21 42  1  0
 21 43  1  0
 22 44  1  0
 23 45  1  0
 24 46  1  0
 26 47  1  0
M  END
$$$$
1I0
     RDKit          3D

 35 37  0  0  0  0  0  0  0  0999 V2000
    2.9336    2.3316    1.1591 O   0  0  0  0  0  0  0  0  0  0  0  0
    3.3711    1.4174    0.4907 C   0  0  0  0  0  0  0  0  0  0  0  0
    2.5558    0.2516    0.0654 C   0  0  0  0  0  0  0  0  0  0  0  0
    3.1162   -0.8237   -0.6623 C   0  0  0  0  0  0  0  0  0  0  0  0
    2.3424   -1.9108   -1.0480 C   0  0  0  0  0  0  0  0  0  0  0  0
    1.2083    0.2252    0.4017 C   0  0  0  0  0  0  0  0  0  0  0  0
    0.4078   -0.8612    0.0232 C   0  0  0  0  0  0  0  0  0  0  0  0
    0.9992   -1.9033   -0.6934 C   0  0  0  0  0  0  0  0  0  0  0  0
   -0.0172   -2.7975   -0.9080 N   0  0  0  0  0  0  0  0  0  0  0  0
   -1.1962   -2.4332   -0.3999 N   0  0  0  0  0  0  0  0  0  0  0  0
   -0.9523   -1.2382    0.1791 C   0  0  0  0  0  0  0  0  0  0  0  0
   -2.0355   -0.4822    0.8580 C   0  0  0  0  0  0  0  0  0  0  0  0
   -2.5779    0.6237    0.0262 C   0  0  0  0  0  0  0  0  0  0  0  0
   -3.5159    1.4589    0.5676 C   0  0  0  0  0  0  0  0  0  0  0  0
   -4.0653    2.5116   -0.1644 C   0  0  0  0  0  0  0  0  0  0  0  0
   -5.0930    3.4206    0.4288 C   0  0  0  0  0  0  0  0  0  0  0  0
   -3.6322    2.6878   -1.4609 C   0  0  0  0  0  0  0  0  0  0  0  0
   -2.6742    1.8359   -2.0157 C   0  0  0  0  0  0  0  0  0  0  0  0
   -2.1379    0.7891   -1.2637 C   0  0  0  0  0  0  0  0  0  0  0  0
    4.6741    1.4505    0.1069 N   0  0  0  0  0  0  0  0  0  0  0  0
    4.1646   -0.7496   -0.8969 H   0  0  0  0  0  0  0  0  0  0  0  0
    2.7548   -2.7387   -1.6030 H   0  0  0  0  0  0  0  0  0  0  0  0
    0.6789    0.9739    0.9456 H   0  0  0  0  0  0  0  0  0  0  0  0
    0.1758   -3.6847   -1.4363 H   0  0  0  0  0  0  0  0  0  0  0  0
   -2.8385   -1.1745    1.1737 H   0  0  0  0  0  0  0  0  0  0  0  0
   -1.6278    0.0243    1.7879 H   0  0  0  0  0  0  0  0  0  0  0  0
   -3.8922    1.3627    1.5892 H   0  0  0  0  0  0  0  0  0  0  0  0
   -6.0660    2.9343    0.3073 H   0  0  0  0  0  0  0  0  0  0  0  0
   -5.0901    4.3456   -0.2011 H   0  0  0  0  0  0  0  0  0  0  0  0
   -4.8400    3.6491    1.4873 H   0  0  0  0  0  0  0  0  0  0  0  0
   -4.0677    3.5167   -2.0285 H   0  0  0  0  0  0  0  0  0  0  0  0
   -2.3501    1.9912   -3.0321 H   0  0  0  0  0  0  0  0  0  0  0  0
   -1.3990    0.1107   -1.6564 H   0  0  0  0  0  0  0  0  0  0  0  0
    4.9889    1.5611   -0.8824 H   0  0  0  0  0  0  0  0  0  0  0  0
    5.4685    1.3635    0.8032 H   0  0  0  0  0  0  0  0  0  0  0  0
  1  2  2  0
  2  3  1  0
  3  4  2  0
  4  5  1  0
  3  6  1  0
  6  7  2  0
  7  8  1  0
  8  9  1  0
  9 10  1  0
 10 11  2  0
 11 12  1  0
 12 13  1  0
 13 14  2  0
 14 15  1  0
 15 16  1  0
 15 17  2  0
 17 18  1  0
 18 19  2  0
  2 20  1  0
  8  5  2  0
 11  7  1  0
 19 13  1  0
  4 21  1  0
  5 22  1  0
  6 23  1  0
  9 24  1  0
 12 25  1  0
 12 26  1  0
 14 27  1  0
 16 28  1  0
 16 29  1  0
 16 30  1  0
 17 31  1  0
 18 32  1  0
 19 33  1  0
 20 34  1  0
 20 35  1  0
M  END
$$$$
1I1
     RDKit          3D

 42 44  0  0  0  0  0  0  0  0999 V2000
   -3.1404    0.4014   -1.4718 C   0  0  0  0  0  0  0  0  0  0  0  0
   -2.4990    0.8219   -0.1443 C   0  0  0  0  0  0  0  0  0  0  0  0
   -3.4335    1.7161    0.6495 C   0  0  0  0  0  0  0  0  0  0  0  0
   -2.0071   -0.3401    0.7027 C   0  0  0  0  0  0  0  0  0  0  0  0
   -0.9384   -1.1847    0.0838 C   0  0  0  0  0  0  0  0  0  0  0  0
   -1.2035   -2.3607   -0.4660 N   0  0  0  0  0  0  0  0  0  0  0  0
   -0.0123   -2.7943   -0.9036 N   0  0  0  0  0  0  0  0  0  0  0  0
    1.0233   -1.9352   -0.6552 C   0  0  0  0  0  0  0  0  0  0  0  0
    0.4538   -0.8515   -0.0004 C   0  0  0  0  0  0  0  0  0  0  0  0
    1.2748    0.2121    0.3912 C   0  0  0  0  0  0  0  0  0  0  0  0
    2.6621    0.1850    0.1257 C   0  0  0  0  0  0  0  0  0  0  0  0
    3.4849    1.2815    0.6218 C   0  0  0  0  0  0  0  0  0  0  0  0
    4.7278    1.5808    0.0947 N   0  0  0  0  0  0  0  0  0  0  0  0
    5.5296    1.1186   -0.9847 C   0  0  0  0  0  0  0  0  0  0  0  0
    6.7104    0.5452   -0.1821 C   0  0  0  0  0  0  0  0  0  0  0  0
    6.9795    1.7644    0.7154 C   0  0  1  0  0  0  0  0  0  0  0  0
    5.6901    2.5854    0.7032 C   0  0  0  0  0  0  0  0  0  0  0  0
    7.3295    1.3561    1.9857 O   0  0  0  0  0  0  0  0  0  0  0  0
    3.0858    2.0131    1.5637 O   0  0  0  0  0  0  0  0  0  0  0  0
    3.1774   -0.9425   -0.5376 C   0  0  0  0  0  0  0  0  0  0  0  0
    2.3806   -2.0154   -0.9403 C   0  0  0  0  0  0  0  0  0  0  0  0
   -4.2318    0.3609   -1.3099 H   0  0  0  0  0  0  0  0  0  0  0  0
   -2.7617   -0.6066   -1.7390 H   0  0  0  0  0  0  0  0  0  0  0  0
   -2.8448    1.1340   -2.2634 H   0  0  0  0  0  0  0  0  0  0  0  0
   -1.5592    1.3871   -0.4174 H   0  0  0  0  0  0  0  0  0  0  0  0
   -2.8208    2.4670    1.1945 H   0  0  0  0  0  0  0  0  0  0  0  0
   -4.1144    2.2787   -0.0287 H   0  0  0  0  0  0  0  0  0  0  0  0
   -4.0013    1.1518    1.4163 H   0  0  0  0  0  0  0  0  0  0  0  0
   -1.5406    0.1672    1.5936 H   0  0  0  0  0  0  0  0  0  0  0  0
   -2.8065   -0.9608    1.0969 H   0  0  0  0  0  0  0  0  0  0  0  0
    0.1567   -3.6999   -1.3945 H   0  0  0  0  0  0  0  0  0  0  0  0
    0.7598    0.9960    0.8811 H   0  0  0  0  0  0  0  0  0  0  0  0
    5.9203    2.0885   -1.4847 H   0  0  0  0  0  0  0  0  0  0  0  0
    5.1508    0.5079   -1.7589 H   0  0  0  0  0  0  0  0  0  0  0  0
    7.5581    0.3074   -0.8214 H   0  0  0  0  0  0  0  0  0  0  0  0
    6.2937   -0.2919    0.3977 H   0  0  0  0  0  0  0  0  0  0  0  0
    7.7754    2.3720    0.2104 H   0  0  0  0  0  0  0  0  0  0  0  0
    5.3432    2.8708    1.6881 H   0  0  0  0  0  0  0  0  0  0  0  0
    5.7338    3.4084   -0.0310 H   0  0  0  0  0  0  0  0  0  0  0  0
    8.0486    1.9257    2.3717 H   0  0  0  0  0  0  0  0  0  0  0  0
    4.2334   -0.9509   -0.6690 H   0  0  0  0  0  0  0  0  0  0  0  0
    2.7897   -2.8585   -1.4429 H   0  0  0  0  0  0  0  0  0  0  0  0
  1  2  1  0
  2  3  1  0
  2  4  1  0
  4  5  1  0
  5  6  2  0
  6  7  1  0
  7  8  1  0
  8  9  2  0
  9 10  1  0
 10 11  2  0
 11 12  1  0
 12 13  1  0
 13 14  1  0
 14 15  1  0
 15 16  1  0
 16 17  1  0
 16 18  1  0
 12 19  2  0
 11 20  1  0
 20 21  2  0
  9  5  1  0
 21  8  1  0
 17 13  1  0
  1 22  1  0
  1 23  1  0
  1 24  1  0
  2 25  1  0
  3 26  1  0
  3 27  1  0
  3 28  1  0
  4 29  1  0
  4 30  1  0
  7 31  1  0
 10 32  1  0
 14 33  1  0
 14 34  1  0
 15 35  1  0
 15 36  1  0
 16 37  1  6
 17 38  1  0
 17 39  1  0
 18 40  1  0
 20 41  1  0
 21 42  1  0
M  END
$$$$
1PA
     RDKit          3D

 31 32  0  0  0  0  0  0  0  0999 V2000
   -3.1469    0.4008   -1.4600 C   0  0  0  0  0  0  0  0  0  0  0  0
   -2.4702    0.8339   -0.1569 C   0  0  0  0  0  0  0  0  0  0  0  0
   -3.4218    1.7217    0.6484 C   0  0  0  0  0  0  0  0  0  0  0  0
   -2.0325   -0.3725    0.6949 C   0  0  0  0  0  0  0  0  0  0  0  0
   -0.9297   -1.1721    0.0778 C   0  0  0  0  0  0  0  0  0  0  0  0
   -1.1939   -2.3500   -0.5037 N   0  0  0  0  0  0  0  0  0  0  0  0
    0.0063   -2.7759   -0.9289 N   0  0  0  0  0  0  0  0  0  0  0  0
    1.0390   -1.9216   -0.6488 C   0  0  0  0  0  0  0  0  0  0  0  0
    0.4548   -0.8526    0.0195 C   0  0  0  0  0  0  0  0  0  0  0  0
    1.2688    0.2090    0.4540 C   0  0  0  0  0  0  0  0  0  0  0  0
    2.6480    0.1630    0.1885 C   0  0  0  0  0  0  0  0  0  0  0  0
    3.2072   -0.9367   -0.4767 C   0  0  0  0  0  0  0  0  0  0  0  0
    2.4094   -2.0026   -0.9129 C   0  0  0  0  0  0  0  0  0  0  0  0
    3.4809    1.3027    0.6581 C   0  0  0  0  0  0  0  0  0  0  0  0
    4.6698    1.5221    0.0184 N   0  0  0  0  0  0  0  0  0  0  0  0
    3.1080    2.0456    1.5570 O   0  0  0  0  0  0  0  0  0  0  0  0
   -3.4849    1.2735   -2.0293 H   0  0  0  0  0  0  0  0  0  0  0  0
   -2.4573   -0.1584   -2.1001 H   0  0  0  0  0  0  0  0  0  0  0  0
   -4.0190   -0.2320   -1.2636 H   0  0  0  0  0  0  0  0  0  0  0  0
   -1.5895    1.4356   -0.4156 H   0  0  0  0  0  0  0  0  0  0  0  0
   -2.9387    2.0800    1.5636 H   0  0  0  0  0  0  0  0  0  0  0  0
   -3.7225    2.5990    0.0659 H   0  0  0  0  0  0  0  0  0  0  0  0
   -4.3283    1.1770    0.9337 H   0  0  0  0  0  0  0  0  0  0  0  0
   -1.6859   -0.0199    1.6753 H   0  0  0  0  0  0  0  0  0  0  0  0
   -2.8962   -1.0204    0.8949 H   0  0  0  0  0  0  0  0  0  0  0  0
    0.0546   -3.6681   -1.4066 H   0  0  0  0  0  0  0  0  0  0  0  0
    0.8373    1.0546    0.9837 H   0  0  0  0  0  0  0  0  0  0  0  0
    4.2798   -0.9966   -0.6434 H   0  0  0  0  0  0  0  0  0  0  0  0
    2.8440   -2.8565   -1.4227 H   0  0  0  0  0  0  0  0  0  0  0  0
    4.8632    1.1375   -0.8948 H   0  0  0  0  0  0  0  0  0  0  0  0
    5.1464    2.3799    0.2679 H   0  0  0  0  0  0  0  0  0  0  0  0
  1  2  1  0
  2  3  1  0
  2  4  1  0
  4  5  1  0
  5  6  2  0
  6  7  1  0
  7  8  1  0
  8  9  2  0
  9 10  1  0
 10 11  2  0
 11 12  1  0
 12 13  2  0
 11 14  1  0
 14 15  1  0
 14 16  2  0
  9  5  1  0
 13  8  1  0
  1 17  1  0
  1 18  1  0
  1 19  1  0
  2 20  1  0
  3 21  1  0
  3 22  1  0
  3 23  1  0
  4 24  1  0
  4 25  1  0
  7 26  1  0
 10 27  1  0
 12 28  1  0
 13 29  1  0
 15 30  1  0
 15 31  1  0
M  END
$$$$
